* Text_Tag % Vendor Intel % Product c73p4rfshdxrom % Techno P1273.1 % Tag_Spec 1.0 % ECCN US_3E002 % Signature fc908b73c335d975a0a384c871bb572c4aa609f7 % Version r1.0.0_m1.18 % _View_Id sp % Date_Time 20160216_100949 
* Netlist modified by mXuniq 1.9 on 20160216_095237
*
* File name: /nfs/iind/disks/apd_disk0048/w/ashah24/mxGen/ILK_16WW08/XLLLP/out_8/mem8/c73p1rfshdxrom2048x32hb4img108/c73p1rfshdxrom2048x32hb4img108.sp
* Spice output from: mXpress 0.44.i 2015-06-02T13:24:38
* Generated on: 2016-02-16T15:11:33
*
.GLOBAL vss
 *PUT YOUR COMMENT HERE
******************************************************************
* SUBCIRCUIT: da9inn00xwsb0
******************************************************************
.SUBCKT c73p1rfshdxrom2048x32hb4img108_da9inn00xwsb0 a o1 vccxx
* INPUT: a vccxx
* OUTPUT: o1
* INOUT:


************************
Mqn1 o1 a vss vss nxlllp L=0.042u W=0.084u
Mqp1 o1 a vccxx vccxx pxlllp L=0.042u W=0.084u
.ENDS c73p1rfshdxrom2048x32hb4img108_da9inn00xwsb0

******************************************************************
* SUBCIRCUIT: c73p4hdxrom_gblpchg
******************************************************************
.SUBCKT c73p1rfshdxrom2048x32hb4img108_c73p4hdxrom_gblpchg gbl gblclk vccxx
* INPUT: gblclk
* OUTPUT:
* INOUT: gbl vccxx


************************
Mgkp0 kp11 vss vccxx vccxx pxlllp L=0.042u W=0.042u
Mgkp1 kp01 kpg kp11 vccxx pxlllp L=0.042u W=0.042u
Mgkp2 gbl kpg kp01 vccxx pxlllp L=0.042u W=0.042u
Mgkprn0 gbl gblclk kn0 vss nxlllp L=0.042u W=0.084u
Mgkprn1 kn0 kpg vss vss nxlllp L=0.042u W=0.084u
Mgpch0 gbl gblclk vccxx vccxx pxlllp L=0.042u W=0.336u
Xigblffwdinv gbl kpg vccxx c73p1rfshdxrom2048x32hb4img108_da9inn00xwsb0
.ENDS c73p1rfshdxrom2048x32hb4img108_c73p4hdxrom_gblpchg

******************************************************************
* SUBCIRCUIT: da9inn00xwsh3
******************************************************************
.SUBCKT c73p1rfshdxrom2048x32hb4img108_da9inn00xwsh3 a o1 vccxx
* INPUT: a vccxx
* OUTPUT: o1
* INOUT:


************************
Mqn1 o1 a vss vss nxlllp L=0.042u W=1.764u
Mqp1 o1 a vccxx vccxx pxlllp L=0.042u W=1.764u
.ENDS c73p1rfshdxrom2048x32hb4img108_da9inn00xwsh3

******************************************************************
* SUBCIRCUIT: da9inn00xwsc0
******************************************************************
.SUBCKT c73p1rfshdxrom2048x32hb4img108_da9inn00xwsc0 a o1 vccxx
* INPUT: a vccxx
* OUTPUT: o1
* INOUT:


************************
Mqn1 o1 a vss vss nxlllp L=0.042u W=0.126u
Mqp1 o1 a vccxx vccxx pxlllp L=0.042u W=0.126u
.ENDS c73p1rfshdxrom2048x32hb4img108_da9inn00xwsc0

******************************************************************
* SUBCIRCUIT: da9inn00xwse5
******************************************************************
.SUBCKT c73p1rfshdxrom2048x32hb4img108_da9inn00xwse5 a o1 vccxx
* INPUT: a vccxx
* OUTPUT: o1
* INOUT:


************************
Mqn1 o1 a vss vss nxlllp L=0.042u W=0.42u
Mqp1 o1 a vccxx vccxx pxlllp L=0.042u W=0.42u
.ENDS c73p1rfshdxrom2048x32hb4img108_da9inn00xwse5

******************************************************************
* SUBCIRCUIT: c73p4hdxrom_iopwrcell
******************************************************************
.SUBCKT c73p1rfshdxrom2048x32hb4img108_c73p4hdxrom_iopwrcell pwren_in
+ pwren_out vccd_1p0 vccdgt_1p0
* INPUT: pwren_in vccd_1p0
* OUTPUT: pwren_out vccdgt_1p0
* INOUT:


************************
Mqn0 pwren_out n38 vss vss nxlllp L=0.042u W=0.84u
Mqn1 n38 pwren_in vss vss nxlllp L=0.042u W=0.21u
Mqp0 pwren_out n38 vccd_1p0 vccd_1p0 pxlllp L=0.042u W=0.84u
Mqp1 n38 pwren_in vccd_1p0 vccd_1p0 pxlllp L=0.042u W=0.21u
Mqp2 vccdgt_1p0 pwren_out vccd_1p0 vccd_1p0 pxlllp L=0.042u W=10.92u
.ENDS c73p1rfshdxrom2048x32hb4img108_c73p4hdxrom_iopwrcell

******************************************************************
* SUBCIRCUIT: c73p4hdxrom_da7sls00ln0j1
******************************************************************
.SUBCKT c73p1rfshdxrom2048x32hb4img108_c73p4hdxrom_da7sls00ln0j1 b ck o
+ vccxx
* INPUT: b ck vccxx
* OUTPUT: o
* INOUT:


************************
Mgifw.qna n11 o vss vss nxlllp L=0.042u W=0.084u
Mgifw.qpa n11 o vccxx vccxx pxlllp L=0.042u W=0.084u
Mqna n10 b vss vss nxlllp L=0.042u W=0.252u
Mqnck0 o b n1 vss nxlllp L=0.042u W=0.042u
Mqnck1 n1 n11 vss vss nxlllp L=0.042u W=0.042u
Mqne o ck n10 vss nxlllp L=0.042u W=0.252u
Mqpa o b vccxx vccxx pxlllp L=0.042u W=0.252u
Mqpck0 o ck n0 vccxx pxlllp L=0.042u W=0.042u
Mqpck1 n0 n11 vccxx vccxx pxlllp L=0.042u W=0.042u
.ENDS c73p1rfshdxrom2048x32hb4img108_c73p4hdxrom_da7sls00ln0j1

******************************************************************
* SUBCIRCUIT: c73p4hdxrom_datio
******************************************************************
.SUBCKT c73p1rfshdxrom2048x32hb4img108_c73p4hdxrom_datio dout gbl pwren_in
+ pwren_out sdlclkin vccd_1p0 vccdgt_1p0
* INPUT: pwren_in
* OUTPUT: dout pwren_out
* INOUT: gbl sdlclkin vccd_1p0 vccdgt_1p0


************************
Xigblpchg gbl sdlclk vccdgt_1p0
+ c73p1rfshdxrom2048x32hb4img108_c73p4hdxrom_gblpchg
Xinn0 sdloutb dout vccdgt_1p0 c73p1rfshdxrom2048x32hb4img108_da9inn00xwsh3
Xinn1 sdlclkin sdlclk vccdgt_1p0
+ c73p1rfshdxrom2048x32hb4img108_da9inn00xwsc0
Xinn2 sdlout sdloutb vccdgt_1p0
+ c73p1rfshdxrom2048x32hb4img108_da9inn00xwse5
Xipg pwren_in pwren_out vccd_1p0 vccdgt_1p0
+ c73p1rfshdxrom2048x32hb4img108_c73p4hdxrom_iopwrcell
Xisdl gbl sdlclk sdlout vccdgt_1p0
+ c73p1rfshdxrom2048x32hb4img108_c73p4hdxrom_da7sls00ln0j1
.ENDS c73p1rfshdxrom2048x32hb4img108_c73p4hdxrom_datio

******************************************************************
* SUBCIRCUIT: c73p4hdxrom_bitcell04g
******************************************************************
.SUBCKT c73p1rfshdxrom2048x32hb4img108_c73p4hdxrom_bitcell04g bl rwl
* INPUT: rwl
* OUTPUT:
* INOUT: bl


************************
Mqnbitcell bl_float rwl vss vss nxlllp L=0.042u W=0.168u
.ENDS c73p1rfshdxrom2048x32hb4img108_c73p4hdxrom_bitcell04g

******************************************************************
* SUBCIRCUIT: c73p4hdxrom_lblnand
******************************************************************
.SUBCKT c73p1rfshdxrom2048x32hb4img108_c73p4hdxrom_lblnand a b o1 vccxx
* INPUT: a b vccxx
* OUTPUT: o1
* INOUT:


************************
Mqn1 o1 a n1 vss nxlllp L=0.042u W=0.168u
Mqn2 n1 b vss vss nxlllp L=0.042u W=0.168u
Mqp1 o1 a vccxx vccxx pxlllp L=0.042u W=0.21u
Mqp2 o1 b vccxx vccxx pxlllp L=0.042u W=0.21u
.ENDS c73p1rfshdxrom2048x32hb4img108_c73p4hdxrom_lblnand

******************************************************************
* SUBCIRCUIT: c73p4hdxrom_bitgap
******************************************************************
.SUBCKT c73p1rfshdxrom2048x32hb4img108_c73p4hdxrom_bitgap cm[0] cm[1] cm[2]
+ cm[3] cm[4] cm[5] cm[6] cm[7] gbl lblleft[0] lblleft[1] lblleft[2]
+ lblleft[3] lblleft[4] lblleft[5] lblleft[6]  lblleft[7] lblpchclkleftb
+ lblpchclkrightb lblright[0] lblright[1] lblright[2]  lblright[3]
+ lblright[4] lblright[5] lblright[6] lblright[7] vccdgt_1p0
* INPUT: cm[0] cm[1] cm[2] cm[3] cm[4] cm[5] cm[6] cm[7] lblleft[0]
*+ lblleft[1] lblleft[2] lblleft[3] lblleft[4] lblleft[5] lblleft[6]
*+ lblleft[7] lblpchclkleftb lblpchclkrightb lblright[0] lblright[1]
*+ lblright[2] lblright[3] lblright[4] lblright[5] lblright[6] lblright[7]
*+ vccdgt_1p0
* OUTPUT:
* INOUT: gbl


************************
Mqn1[0] lbll cm[0] lblleft[0] vss nxlllp L=0.042u W=0.21u
Mqn1[1] lbll cm[1] lblleft[1] vss nxlllp L=0.042u W=0.21u
Mqn1[2] lbll cm[2] lblleft[2] vss nxlllp L=0.042u W=0.21u
Mqn1[3] lbll cm[3] lblleft[3] vss nxlllp L=0.042u W=0.21u
Mqn1[4] lbll cm[4] lblleft[4] vss nxlllp L=0.042u W=0.21u
Mqn1[5] lbll cm[5] lblleft[5] vss nxlllp L=0.042u W=0.21u
Mqn1[6] lbll cm[6] lblleft[6] vss nxlllp L=0.042u W=0.21u
Mqn1[7] lbll cm[7] lblleft[7] vss nxlllp L=0.042u W=0.21u
Mqncmright[0] lblr cm[0] lblright[0] vss nxlllp L=0.042u W=0.21u
Mqncmright[1] lblr cm[1] lblright[1] vss nxlllp L=0.042u W=0.21u
Mqncmright[2] lblr cm[2] lblright[2] vss nxlllp L=0.042u W=0.21u
Mqncmright[3] lblr cm[3] lblright[3] vss nxlllp L=0.042u W=0.21u
Mqncmright[4] lblr cm[4] lblright[4] vss nxlllp L=0.042u W=0.21u
Mqncmright[5] lblr cm[5] lblright[5] vss nxlllp L=0.042u W=0.21u
Mqncmright[6] lblr cm[6] lblright[6] vss nxlllp L=0.042u W=0.21u
Mqncmright[7] lblr cm[7] lblright[7] vss nxlllp L=0.042u W=0.21u
Mqngblpd gbl rdbl vss vss nxlllp L=0.042u W=0.504u
Mqp0 kp0r kpr kp1r vccdgt_1p0 pxlllp L=0.042u W=0.042u
Mqp1 kp3l vss vccdgt_1p0 vccdgt_1p0 pxlllp L=0.042u W=0.042u
Mqp12 kp3r vss vccdgt_1p0 vccdgt_1p0 pxlllp L=0.042u W=0.042u
Mqp13 kp2r vss kp3r vccdgt_1p0 pxlllp L=0.042u W=0.042u
Mqp14 kp1r vss kp2r vccdgt_1p0 pxlllp L=0.042u W=0.042u
Mqp2 kp2l vss kp3l vccdgt_1p0 pxlllp L=0.042u W=0.042u
Mqp3 kp1l vss kp2l vccdgt_1p0 pxlllp L=0.042u W=0.042u
Mqp4 lbll kpl kp0l vccdgt_1p0 pxlllp L=0.042u W=0.042u
Mqp5 kp0l kpl kp1l vccdgt_1p0 pxlllp L=0.042u W=0.042u
Mqp6 lbll lblpchclkleft vccdgt_1p0 vccdgt_1p0 pxlllp L=0.042u W=0.084u
Mqp7[0] lblleft[0] lblpchclkleft vccdgt_1p0 vccdgt_1p0 pxlllp L=0.042u W=0.084u
Mqp7[1] lblleft[1] lblpchclkleft vccdgt_1p0 vccdgt_1p0 pxlllp L=0.042u W=0.084u
Mqp7[2] lblleft[2] lblpchclkleft vccdgt_1p0 vccdgt_1p0 pxlllp L=0.042u W=0.084u
Mqp7[3] lblleft[3] lblpchclkleft vccdgt_1p0 vccdgt_1p0 pxlllp L=0.042u W=0.084u
Mqp7[4] lblleft[4] lblpchclkleft vccdgt_1p0 vccdgt_1p0 pxlllp L=0.042u W=0.084u
Mqp7[5] lblleft[5] lblpchclkleft vccdgt_1p0 vccdgt_1p0 pxlllp L=0.042u W=0.084u
Mqp7[6] lblleft[6] lblpchclkleft vccdgt_1p0 vccdgt_1p0 pxlllp L=0.042u W=0.084u
Mqp7[7] lblleft[7] lblpchclkleft vccdgt_1p0 vccdgt_1p0 pxlllp L=0.042u W=0.084u
Mqp9 lblr kpr kp0r vccdgt_1p0 pxlllp L=0.042u W=0.042u
Mqpch lblr lblpchclkright vccdgt_1p0 vccdgt_1p0 pxlllp L=0.042u W=0.084u
Mqpchsc[0] lblright[0] lblpchclkright vccdgt_1p0 vccdgt_1p0 pxlllp L=0.042u
+ W=0.084u
Mqpchsc[1] lblright[1] lblpchclkright vccdgt_1p0 vccdgt_1p0 pxlllp L=0.042u
+ W=0.084u
Mqpchsc[2] lblright[2] lblpchclkright vccdgt_1p0 vccdgt_1p0 pxlllp L=0.042u
+ W=0.084u
Mqpchsc[3] lblright[3] lblpchclkright vccdgt_1p0 vccdgt_1p0 pxlllp L=0.042u
+ W=0.084u
Mqpchsc[4] lblright[4] lblpchclkright vccdgt_1p0 vccdgt_1p0 pxlllp L=0.042u
+ W=0.084u
Mqpchsc[5] lblright[5] lblpchclkright vccdgt_1p0 vccdgt_1p0 pxlllp L=0.042u
+ W=0.084u
Mqpchsc[6] lblright[6] lblpchclkright vccdgt_1p0 vccdgt_1p0 pxlllp L=0.042u
+ W=0.084u
Mqpchsc[7] lblright[7] lblpchclkright vccdgt_1p0 vccdgt_1p0 pxlllp L=0.042u
+ W=0.084u
Xgrdbl lblr lbll rdbl vccdgt_1p0
+ c73p1rfshdxrom2048x32hb4img108_c73p4hdxrom_lblnand
Xiffwdl lbll kpl vccdgt_1p0 c73p1rfshdxrom2048x32hb4img108_da9inn00xwsb0
Xiffwdr lblr kpr vccdgt_1p0 c73p1rfshdxrom2048x32hb4img108_da9inn00xwsb0
Xinn2 lblpchclkleftb lblpchclkleft vccdgt_1p0
+ c73p1rfshdxrom2048x32hb4img108_da9inn00xwsc0
Xinn3 lblpchclkrightb lblpchclkright vccdgt_1p0
+ c73p1rfshdxrom2048x32hb4img108_da9inn00xwsc0
.ENDS c73p1rfshdxrom2048x32hb4img108_c73p4hdxrom_bitgap

******************************************************************
* SUBCIRCUIT: c73p4hdxrom_polycon3dg
******************************************************************
.SUBCKT c73p1rfshdxrom2048x32hb4img108_c73p4hdxrom_polycon3dg rwl
* INPUT:
* OUTPUT:
* INOUT: rwl


************************
.ENDS c73p1rfshdxrom2048x32hb4img108_c73p4hdxrom_polycon3dg

******************************************************************
* SUBCIRCUIT: c73p4hdxrom_bitslicearray32v2bit0
******************************************************************
.SUBCKT c73p1rfshdxrom2048x32hb4img108_c73p4hdxrom_bitslicearray32v2bit0
+ cm[0] cm[1] cm[2] cm[3] cm[4] cm[5] cm[6] cm[7] gbl lblpchclkleftb
+ lblpchclkrightb rwlt[0] rwlt[1] rwlt[2]  rwlt[3] rwlt[4] rwlt[5] rwlt[6]
+ rwlt[7] rwlt[8] rwlt[9] rwlt[10] rwlt[11]  rwlt[12] rwlt[13] rwlt[14]
+ rwlt[15] rwlt[16] rwlt[17] rwlt[18] rwlt[19]  rwlt[20] rwlt[21] rwlt[22]
+ rwlt[23] rwlt[24] rwlt[25] rwlt[26] rwlt[27]  rwlt[28] rwlt[29] rwlt[30]
+ rwlt[31] rwlt[32] rwlt[33] rwlt[34] rwlt[35]  rwlt[36] rwlt[37] rwlt[38]
+ rwlt[39] rwlt[40] rwlt[41] rwlt[42] rwlt[43]  rwlt[44] rwlt[45] rwlt[46]
+ rwlt[47] rwlt[48] rwlt[49] rwlt[50] rwlt[51]  rwlt[52] rwlt[53] rwlt[54]
+ rwlt[55] rwlt[56] rwlt[57] rwlt[58] rwlt[59]  rwlt[60] rwlt[61] rwlt[62]
+ rwlt[63] vccd_1p0 vccdgt_1p0
* INPUT:
* OUTPUT:
* INOUT: cm[0] cm[1] cm[2] cm[3] cm[4] cm[5] cm[6] cm[7] gbl
*+ lblpchclkleftb lblpchclkrightb rwlt[0] rwlt[1] rwlt[2] rwlt[3] rwlt[4]
*+ rwlt[5] rwlt[6] rwlt[7] rwlt[8] rwlt[9] rwlt[10] rwlt[11] rwlt[12]
*+ rwlt[13] rwlt[14] rwlt[15] rwlt[16] rwlt[17] rwlt[18] rwlt[19] rwlt[20]
*+ rwlt[21] rwlt[22] rwlt[23] rwlt[24] rwlt[25] rwlt[26] rwlt[27] rwlt[28]
*+ rwlt[29] rwlt[30] rwlt[31] rwlt[32] rwlt[33] rwlt[34] rwlt[35] rwlt[36]
*+ rwlt[37] rwlt[38] rwlt[39] rwlt[40] rwlt[41] rwlt[42] rwlt[43] rwlt[44]
*+ rwlt[45] rwlt[46] rwlt[47] rwlt[48] rwlt[49] rwlt[50] rwlt[51] rwlt[52]
*+ rwlt[53] rwlt[54] rwlt[55] rwlt[56] rwlt[57] rwlt[58] rwlt[59] rwlt[60]
*+ rwlt[61] rwlt[62] rwlt[63] vccd_1p0 vccdgt_1p0


************************
Xiarray_r0c0 lblleft[0] rwlt[0]
+ c73p1rfshdxrom2048x32hb4img108_c73p4hdxrom_bitcell04g
Xiarray_r0c1 lblleft[1] rwlt[0]
+ c73p1rfshdxrom2048x32hb4img108_c73p4hdxrom_bitcell04g
Xiarray_r0c2 lblleft[2] rwlt[0]
+ c73p1rfshdxrom2048x32hb4img108_c73p4hdxrom_bitcell04g
Xiarray_r0c3 lblleft[3] rwlt[0]
+ c73p1rfshdxrom2048x32hb4img108_c73p4hdxrom_bitcell04g
Xiarray_r0c4 lblleft[4] rwlt[0]
+ c73p1rfshdxrom2048x32hb4img108_c73p4hdxrom_bitcell04g
Xiarray_r0c5 lblleft[5] rwlt[0]
+ c73p1rfshdxrom2048x32hb4img108_c73p4hdxrom_bitcell04g
Xiarray_r0c6 lblleft[6] rwlt[0]
+ c73p1rfshdxrom2048x32hb4img108_c73p4hdxrom_bitcell04g
Xiarray_r0c7 lblleft[7] rwlt[0]
+ c73p1rfshdxrom2048x32hb4img108_c73p4hdxrom_bitcell04g
Xiarray_r10c0 lblleft[0] rwlt[10]
+ c73p1rfshdxrom2048x32hb4img108_c73p4hdxrom_bitcell04g
Xiarray_r10c1 lblleft[1] rwlt[10]
+ c73p1rfshdxrom2048x32hb4img108_c73p4hdxrom_bitcell04g
Xiarray_r10c2 lblleft[2] rwlt[10]
+ c73p1rfshdxrom2048x32hb4img108_c73p4hdxrom_bitcell04g
Xiarray_r10c3 lblleft[3] rwlt[10]
+ c73p1rfshdxrom2048x32hb4img108_c73p4hdxrom_bitcell04g
Xiarray_r10c4 lblleft[4] rwlt[10]
+ c73p1rfshdxrom2048x32hb4img108_c73p4hdxrom_bitcell04g
Xiarray_r10c5 lblleft[5] rwlt[10]
+ c73p1rfshdxrom2048x32hb4img108_c73p4hdxrom_bitcell04g
Xiarray_r10c6 lblleft[6] rwlt[10]
+ c73p1rfshdxrom2048x32hb4img108_c73p4hdxrom_bitcell04g
Xiarray_r10c7 lblleft[7] rwlt[10]
+ c73p1rfshdxrom2048x32hb4img108_c73p4hdxrom_bitcell04g
Xiarray_r11c0 lblleft[0] rwlt[11]
+ c73p1rfshdxrom2048x32hb4img108_c73p4hdxrom_bitcell04g
Xiarray_r11c1 lblleft[1] rwlt[11]
+ c73p1rfshdxrom2048x32hb4img108_c73p4hdxrom_bitcell04g
Xiarray_r11c2 lblleft[2] rwlt[11]
+ c73p1rfshdxrom2048x32hb4img108_c73p4hdxrom_bitcell04g
Xiarray_r11c3 lblleft[3] rwlt[11]
+ c73p1rfshdxrom2048x32hb4img108_c73p4hdxrom_bitcell04g
Xiarray_r11c4 lblleft[4] rwlt[11]
+ c73p1rfshdxrom2048x32hb4img108_c73p4hdxrom_bitcell04g
Xiarray_r11c5 lblleft[5] rwlt[11]
+ c73p1rfshdxrom2048x32hb4img108_c73p4hdxrom_bitcell04g
Xiarray_r11c6 lblleft[6] rwlt[11]
+ c73p1rfshdxrom2048x32hb4img108_c73p4hdxrom_bitcell04g
Xiarray_r11c7 lblleft[7] rwlt[11]
+ c73p1rfshdxrom2048x32hb4img108_c73p4hdxrom_bitcell04g
Xiarray_r12c0 lblleft[0] rwlt[12]
+ c73p1rfshdxrom2048x32hb4img108_c73p4hdxrom_bitcell04g
Xiarray_r12c1 lblleft[1] rwlt[12]
+ c73p1rfshdxrom2048x32hb4img108_c73p4hdxrom_bitcell04g
Xiarray_r12c2 lblleft[2] rwlt[12]
+ c73p1rfshdxrom2048x32hb4img108_c73p4hdxrom_bitcell04g
Xiarray_r12c3 lblleft[3] rwlt[12]
+ c73p1rfshdxrom2048x32hb4img108_c73p4hdxrom_bitcell04g
Xiarray_r12c4 lblleft[4] rwlt[12]
+ c73p1rfshdxrom2048x32hb4img108_c73p4hdxrom_bitcell04g
Xiarray_r12c5 lblleft[5] rwlt[12]
+ c73p1rfshdxrom2048x32hb4img108_c73p4hdxrom_bitcell04g
Xiarray_r12c6 lblleft[6] rwlt[12]
+ c73p1rfshdxrom2048x32hb4img108_c73p4hdxrom_bitcell04g
Xiarray_r12c7 lblleft[7] rwlt[12]
+ c73p1rfshdxrom2048x32hb4img108_c73p4hdxrom_bitcell04g
Xiarray_r13c0 lblleft[0] rwlt[13]
+ c73p1rfshdxrom2048x32hb4img108_c73p4hdxrom_bitcell04g
Xiarray_r13c1 lblleft[1] rwlt[13]
+ c73p1rfshdxrom2048x32hb4img108_c73p4hdxrom_bitcell04g
Xiarray_r13c2 lblleft[2] rwlt[13]
+ c73p1rfshdxrom2048x32hb4img108_c73p4hdxrom_bitcell04g
Xiarray_r13c3 lblleft[3] rwlt[13]
+ c73p1rfshdxrom2048x32hb4img108_c73p4hdxrom_bitcell04g
Xiarray_r13c4 lblleft[4] rwlt[13]
+ c73p1rfshdxrom2048x32hb4img108_c73p4hdxrom_bitcell04g
Xiarray_r13c5 lblleft[5] rwlt[13]
+ c73p1rfshdxrom2048x32hb4img108_c73p4hdxrom_bitcell04g
Xiarray_r13c6 lblleft[6] rwlt[13]
+ c73p1rfshdxrom2048x32hb4img108_c73p4hdxrom_bitcell04g
Xiarray_r13c7 lblleft[7] rwlt[13]
+ c73p1rfshdxrom2048x32hb4img108_c73p4hdxrom_bitcell04g
Xiarray_r14c0 lblleft[0] rwlt[14]
+ c73p1rfshdxrom2048x32hb4img108_c73p4hdxrom_bitcell04g
Xiarray_r14c1 lblleft[1] rwlt[14]
+ c73p1rfshdxrom2048x32hb4img108_c73p4hdxrom_bitcell04g
Xiarray_r14c2 lblleft[2] rwlt[14]
+ c73p1rfshdxrom2048x32hb4img108_c73p4hdxrom_bitcell04g
Xiarray_r14c3 lblleft[3] rwlt[14]
+ c73p1rfshdxrom2048x32hb4img108_c73p4hdxrom_bitcell04g
Xiarray_r14c4 lblleft[4] rwlt[14]
+ c73p1rfshdxrom2048x32hb4img108_c73p4hdxrom_bitcell04g
Xiarray_r14c5 lblleft[5] rwlt[14]
+ c73p1rfshdxrom2048x32hb4img108_c73p4hdxrom_bitcell04g
Xiarray_r14c6 lblleft[6] rwlt[14]
+ c73p1rfshdxrom2048x32hb4img108_c73p4hdxrom_bitcell04g
Xiarray_r14c7 lblleft[7] rwlt[14]
+ c73p1rfshdxrom2048x32hb4img108_c73p4hdxrom_bitcell04g
Xiarray_r15c0 lblleft[0] rwlt[15]
+ c73p1rfshdxrom2048x32hb4img108_c73p4hdxrom_bitcell04g
Xiarray_r15c1 lblleft[1] rwlt[15]
+ c73p1rfshdxrom2048x32hb4img108_c73p4hdxrom_bitcell04g
Xiarray_r15c2 lblleft[2] rwlt[15]
+ c73p1rfshdxrom2048x32hb4img108_c73p4hdxrom_bitcell04g
Xiarray_r15c3 lblleft[3] rwlt[15]
+ c73p1rfshdxrom2048x32hb4img108_c73p4hdxrom_bitcell04g
Xiarray_r15c4 lblleft[4] rwlt[15]
+ c73p1rfshdxrom2048x32hb4img108_c73p4hdxrom_bitcell04g
Xiarray_r15c5 lblleft[5] rwlt[15]
+ c73p1rfshdxrom2048x32hb4img108_c73p4hdxrom_bitcell04g
Xiarray_r15c6 lblleft[6] rwlt[15]
+ c73p1rfshdxrom2048x32hb4img108_c73p4hdxrom_bitcell04g
Xiarray_r15c7 lblleft[7] rwlt[15]
+ c73p1rfshdxrom2048x32hb4img108_c73p4hdxrom_bitcell04g
Xiarray_r16c0 lblleft[0] rwlt[16]
+ c73p1rfshdxrom2048x32hb4img108_c73p4hdxrom_bitcell04g
Xiarray_r16c1 lblleft[1] rwlt[16]
+ c73p1rfshdxrom2048x32hb4img108_c73p4hdxrom_bitcell04g
Xiarray_r16c2 lblleft[2] rwlt[16]
+ c73p1rfshdxrom2048x32hb4img108_c73p4hdxrom_bitcell04g
Xiarray_r16c3 lblleft[3] rwlt[16]
+ c73p1rfshdxrom2048x32hb4img108_c73p4hdxrom_bitcell04g
Xiarray_r16c4 lblleft[4] rwlt[16]
+ c73p1rfshdxrom2048x32hb4img108_c73p4hdxrom_bitcell04g
Xiarray_r16c5 lblleft[5] rwlt[16]
+ c73p1rfshdxrom2048x32hb4img108_c73p4hdxrom_bitcell04g
Xiarray_r16c6 lblleft[6] rwlt[16]
+ c73p1rfshdxrom2048x32hb4img108_c73p4hdxrom_bitcell04g
Xiarray_r16c7 lblleft[7] rwlt[16]
+ c73p1rfshdxrom2048x32hb4img108_c73p4hdxrom_bitcell04g
Xiarray_r17c0 lblleft[0] rwlt[17]
+ c73p1rfshdxrom2048x32hb4img108_c73p4hdxrom_bitcell04g
Xiarray_r17c1 lblleft[1] rwlt[17]
+ c73p1rfshdxrom2048x32hb4img108_c73p4hdxrom_bitcell04g
Xiarray_r17c2 lblleft[2] rwlt[17]
+ c73p1rfshdxrom2048x32hb4img108_c73p4hdxrom_bitcell04g
Xiarray_r17c3 lblleft[3] rwlt[17]
+ c73p1rfshdxrom2048x32hb4img108_c73p4hdxrom_bitcell04g
Xiarray_r17c4 lblleft[4] rwlt[17]
+ c73p1rfshdxrom2048x32hb4img108_c73p4hdxrom_bitcell04g
Xiarray_r17c5 lblleft[5] rwlt[17]
+ c73p1rfshdxrom2048x32hb4img108_c73p4hdxrom_bitcell04g
Xiarray_r17c6 lblleft[6] rwlt[17]
+ c73p1rfshdxrom2048x32hb4img108_c73p4hdxrom_bitcell04g
Xiarray_r17c7 lblleft[7] rwlt[17]
+ c73p1rfshdxrom2048x32hb4img108_c73p4hdxrom_bitcell04g
Xiarray_r18c0 lblleft[0] rwlt[18]
+ c73p1rfshdxrom2048x32hb4img108_c73p4hdxrom_bitcell04g
Xiarray_r18c1 lblleft[1] rwlt[18]
+ c73p1rfshdxrom2048x32hb4img108_c73p4hdxrom_bitcell04g
Xiarray_r18c2 lblleft[2] rwlt[18]
+ c73p1rfshdxrom2048x32hb4img108_c73p4hdxrom_bitcell04g
Xiarray_r18c3 lblleft[3] rwlt[18]
+ c73p1rfshdxrom2048x32hb4img108_c73p4hdxrom_bitcell04g
Xiarray_r18c4 lblleft[4] rwlt[18]
+ c73p1rfshdxrom2048x32hb4img108_c73p4hdxrom_bitcell04g
Xiarray_r18c5 lblleft[5] rwlt[18]
+ c73p1rfshdxrom2048x32hb4img108_c73p4hdxrom_bitcell04g
Xiarray_r18c6 lblleft[6] rwlt[18]
+ c73p1rfshdxrom2048x32hb4img108_c73p4hdxrom_bitcell04g
Xiarray_r18c7 lblleft[7] rwlt[18]
+ c73p1rfshdxrom2048x32hb4img108_c73p4hdxrom_bitcell04g
Xiarray_r19c0 lblleft[0] rwlt[19]
+ c73p1rfshdxrom2048x32hb4img108_c73p4hdxrom_bitcell04g
Xiarray_r19c1 lblleft[1] rwlt[19]
+ c73p1rfshdxrom2048x32hb4img108_c73p4hdxrom_bitcell04g
Xiarray_r19c2 lblleft[2] rwlt[19]
+ c73p1rfshdxrom2048x32hb4img108_c73p4hdxrom_bitcell04g
Xiarray_r19c3 lblleft[3] rwlt[19]
+ c73p1rfshdxrom2048x32hb4img108_c73p4hdxrom_bitcell04g
Xiarray_r19c4 lblleft[4] rwlt[19]
+ c73p1rfshdxrom2048x32hb4img108_c73p4hdxrom_bitcell04g
Xiarray_r19c5 lblleft[5] rwlt[19]
+ c73p1rfshdxrom2048x32hb4img108_c73p4hdxrom_bitcell04g
Xiarray_r19c6 lblleft[6] rwlt[19]
+ c73p1rfshdxrom2048x32hb4img108_c73p4hdxrom_bitcell04g
Xiarray_r19c7 lblleft[7] rwlt[19]
+ c73p1rfshdxrom2048x32hb4img108_c73p4hdxrom_bitcell04g
Xiarray_r1c0 lblleft[0] rwlt[1]
+ c73p1rfshdxrom2048x32hb4img108_c73p4hdxrom_bitcell04g
Xiarray_r1c1 lblleft[1] rwlt[1]
+ c73p1rfshdxrom2048x32hb4img108_c73p4hdxrom_bitcell04g
Xiarray_r1c2 lblleft[2] rwlt[1]
+ c73p1rfshdxrom2048x32hb4img108_c73p4hdxrom_bitcell04g
Xiarray_r1c3 lblleft[3] rwlt[1]
+ c73p1rfshdxrom2048x32hb4img108_c73p4hdxrom_bitcell04g
Xiarray_r1c4 lblleft[4] rwlt[1]
+ c73p1rfshdxrom2048x32hb4img108_c73p4hdxrom_bitcell04g
Xiarray_r1c5 lblleft[5] rwlt[1]
+ c73p1rfshdxrom2048x32hb4img108_c73p4hdxrom_bitcell04g
Xiarray_r1c6 lblleft[6] rwlt[1]
+ c73p1rfshdxrom2048x32hb4img108_c73p4hdxrom_bitcell04g
Xiarray_r1c7 lblleft[7] rwlt[1]
+ c73p1rfshdxrom2048x32hb4img108_c73p4hdxrom_bitcell04g
Xiarray_r20c0 lblleft[0] rwlt[20]
+ c73p1rfshdxrom2048x32hb4img108_c73p4hdxrom_bitcell04g
Xiarray_r20c1 lblleft[1] rwlt[20]
+ c73p1rfshdxrom2048x32hb4img108_c73p4hdxrom_bitcell04g
Xiarray_r20c2 lblleft[2] rwlt[20]
+ c73p1rfshdxrom2048x32hb4img108_c73p4hdxrom_bitcell04g
Xiarray_r20c3 lblleft[3] rwlt[20]
+ c73p1rfshdxrom2048x32hb4img108_c73p4hdxrom_bitcell04g
Xiarray_r20c4 lblleft[4] rwlt[20]
+ c73p1rfshdxrom2048x32hb4img108_c73p4hdxrom_bitcell04g
Xiarray_r20c5 lblleft[5] rwlt[20]
+ c73p1rfshdxrom2048x32hb4img108_c73p4hdxrom_bitcell04g
Xiarray_r20c6 lblleft[6] rwlt[20]
+ c73p1rfshdxrom2048x32hb4img108_c73p4hdxrom_bitcell04g
Xiarray_r20c7 lblleft[7] rwlt[20]
+ c73p1rfshdxrom2048x32hb4img108_c73p4hdxrom_bitcell04g
Xiarray_r21c0 lblleft[0] rwlt[21]
+ c73p1rfshdxrom2048x32hb4img108_c73p4hdxrom_bitcell04g
Xiarray_r21c1 lblleft[1] rwlt[21]
+ c73p1rfshdxrom2048x32hb4img108_c73p4hdxrom_bitcell04g
Xiarray_r21c2 lblleft[2] rwlt[21]
+ c73p1rfshdxrom2048x32hb4img108_c73p4hdxrom_bitcell04g
Xiarray_r21c3 lblleft[3] rwlt[21]
+ c73p1rfshdxrom2048x32hb4img108_c73p4hdxrom_bitcell04g
Xiarray_r21c4 lblleft[4] rwlt[21]
+ c73p1rfshdxrom2048x32hb4img108_c73p4hdxrom_bitcell04g
Xiarray_r21c5 lblleft[5] rwlt[21]
+ c73p1rfshdxrom2048x32hb4img108_c73p4hdxrom_bitcell04g
Xiarray_r21c6 lblleft[6] rwlt[21]
+ c73p1rfshdxrom2048x32hb4img108_c73p4hdxrom_bitcell04g
Xiarray_r21c7 lblleft[7] rwlt[21]
+ c73p1rfshdxrom2048x32hb4img108_c73p4hdxrom_bitcell04g
Xiarray_r22c0 lblleft[0] rwlt[22]
+ c73p1rfshdxrom2048x32hb4img108_c73p4hdxrom_bitcell04g
Xiarray_r22c1 lblleft[1] rwlt[22]
+ c73p1rfshdxrom2048x32hb4img108_c73p4hdxrom_bitcell04g
Xiarray_r22c2 lblleft[2] rwlt[22]
+ c73p1rfshdxrom2048x32hb4img108_c73p4hdxrom_bitcell04g
Xiarray_r22c3 lblleft[3] rwlt[22]
+ c73p1rfshdxrom2048x32hb4img108_c73p4hdxrom_bitcell04g
Xiarray_r22c4 lblleft[4] rwlt[22]
+ c73p1rfshdxrom2048x32hb4img108_c73p4hdxrom_bitcell04g
Xiarray_r22c5 lblleft[5] rwlt[22]
+ c73p1rfshdxrom2048x32hb4img108_c73p4hdxrom_bitcell04g
Xiarray_r22c6 lblleft[6] rwlt[22]
+ c73p1rfshdxrom2048x32hb4img108_c73p4hdxrom_bitcell04g
Xiarray_r22c7 lblleft[7] rwlt[22]
+ c73p1rfshdxrom2048x32hb4img108_c73p4hdxrom_bitcell04g
Xiarray_r23c0 lblleft[0] rwlt[23]
+ c73p1rfshdxrom2048x32hb4img108_c73p4hdxrom_bitcell04g
Xiarray_r23c1 lblleft[1] rwlt[23]
+ c73p1rfshdxrom2048x32hb4img108_c73p4hdxrom_bitcell04g
Xiarray_r23c2 lblleft[2] rwlt[23]
+ c73p1rfshdxrom2048x32hb4img108_c73p4hdxrom_bitcell04g
Xiarray_r23c3 lblleft[3] rwlt[23]
+ c73p1rfshdxrom2048x32hb4img108_c73p4hdxrom_bitcell04g
Xiarray_r23c4 lblleft[4] rwlt[23]
+ c73p1rfshdxrom2048x32hb4img108_c73p4hdxrom_bitcell04g
Xiarray_r23c5 lblleft[5] rwlt[23]
+ c73p1rfshdxrom2048x32hb4img108_c73p4hdxrom_bitcell04g
Xiarray_r23c6 lblleft[6] rwlt[23]
+ c73p1rfshdxrom2048x32hb4img108_c73p4hdxrom_bitcell04g
Xiarray_r23c7 lblleft[7] rwlt[23]
+ c73p1rfshdxrom2048x32hb4img108_c73p4hdxrom_bitcell04g
Xiarray_r24c0 lblleft[0] rwlt[24]
+ c73p1rfshdxrom2048x32hb4img108_c73p4hdxrom_bitcell04g
Xiarray_r24c1 lblleft[1] rwlt[24]
+ c73p1rfshdxrom2048x32hb4img108_c73p4hdxrom_bitcell04g
Xiarray_r24c2 lblleft[2] rwlt[24]
+ c73p1rfshdxrom2048x32hb4img108_c73p4hdxrom_bitcell04g
Xiarray_r24c3 lblleft[3] rwlt[24]
+ c73p1rfshdxrom2048x32hb4img108_c73p4hdxrom_bitcell04g
Xiarray_r24c4 lblleft[4] rwlt[24]
+ c73p1rfshdxrom2048x32hb4img108_c73p4hdxrom_bitcell04g
Xiarray_r24c5 lblleft[5] rwlt[24]
+ c73p1rfshdxrom2048x32hb4img108_c73p4hdxrom_bitcell04g
Xiarray_r24c6 lblleft[6] rwlt[24]
+ c73p1rfshdxrom2048x32hb4img108_c73p4hdxrom_bitcell04g
Xiarray_r24c7 lblleft[7] rwlt[24]
+ c73p1rfshdxrom2048x32hb4img108_c73p4hdxrom_bitcell04g
Xiarray_r25c0 lblleft[0] rwlt[25]
+ c73p1rfshdxrom2048x32hb4img108_c73p4hdxrom_bitcell04g
Xiarray_r25c1 lblleft[1] rwlt[25]
+ c73p1rfshdxrom2048x32hb4img108_c73p4hdxrom_bitcell04g
Xiarray_r25c2 lblleft[2] rwlt[25]
+ c73p1rfshdxrom2048x32hb4img108_c73p4hdxrom_bitcell04g
Xiarray_r25c3 lblleft[3] rwlt[25]
+ c73p1rfshdxrom2048x32hb4img108_c73p4hdxrom_bitcell04g
Xiarray_r25c4 lblleft[4] rwlt[25]
+ c73p1rfshdxrom2048x32hb4img108_c73p4hdxrom_bitcell04g
Xiarray_r25c5 lblleft[5] rwlt[25]
+ c73p1rfshdxrom2048x32hb4img108_c73p4hdxrom_bitcell04g
Xiarray_r25c6 lblleft[6] rwlt[25]
+ c73p1rfshdxrom2048x32hb4img108_c73p4hdxrom_bitcell04g
Xiarray_r25c7 lblleft[7] rwlt[25]
+ c73p1rfshdxrom2048x32hb4img108_c73p4hdxrom_bitcell04g
Xiarray_r26c0 lblleft[0] rwlt[26]
+ c73p1rfshdxrom2048x32hb4img108_c73p4hdxrom_bitcell04g
Xiarray_r26c1 lblleft[1] rwlt[26]
+ c73p1rfshdxrom2048x32hb4img108_c73p4hdxrom_bitcell04g
Xiarray_r26c2 lblleft[2] rwlt[26]
+ c73p1rfshdxrom2048x32hb4img108_c73p4hdxrom_bitcell04g
Xiarray_r26c3 lblleft[3] rwlt[26]
+ c73p1rfshdxrom2048x32hb4img108_c73p4hdxrom_bitcell04g
Xiarray_r26c4 lblleft[4] rwlt[26]
+ c73p1rfshdxrom2048x32hb4img108_c73p4hdxrom_bitcell04g
Xiarray_r26c5 lblleft[5] rwlt[26]
+ c73p1rfshdxrom2048x32hb4img108_c73p4hdxrom_bitcell04g
Xiarray_r26c6 lblleft[6] rwlt[26]
+ c73p1rfshdxrom2048x32hb4img108_c73p4hdxrom_bitcell04g
Xiarray_r26c7 lblleft[7] rwlt[26]
+ c73p1rfshdxrom2048x32hb4img108_c73p4hdxrom_bitcell04g
Xiarray_r27c0 lblleft[0] rwlt[27]
+ c73p1rfshdxrom2048x32hb4img108_c73p4hdxrom_bitcell04g
Xiarray_r27c1 lblleft[1] rwlt[27]
+ c73p1rfshdxrom2048x32hb4img108_c73p4hdxrom_bitcell04g
Xiarray_r27c2 lblleft[2] rwlt[27]
+ c73p1rfshdxrom2048x32hb4img108_c73p4hdxrom_bitcell04g
Xiarray_r27c3 lblleft[3] rwlt[27]
+ c73p1rfshdxrom2048x32hb4img108_c73p4hdxrom_bitcell04g
Xiarray_r27c4 lblleft[4] rwlt[27]
+ c73p1rfshdxrom2048x32hb4img108_c73p4hdxrom_bitcell04g
Xiarray_r27c5 lblleft[5] rwlt[27]
+ c73p1rfshdxrom2048x32hb4img108_c73p4hdxrom_bitcell04g
Xiarray_r27c6 lblleft[6] rwlt[27]
+ c73p1rfshdxrom2048x32hb4img108_c73p4hdxrom_bitcell04g
Xiarray_r27c7 lblleft[7] rwlt[27]
+ c73p1rfshdxrom2048x32hb4img108_c73p4hdxrom_bitcell04g
Xiarray_r28c0 lblleft[0] rwlt[28]
+ c73p1rfshdxrom2048x32hb4img108_c73p4hdxrom_bitcell04g
Xiarray_r28c1 lblleft[1] rwlt[28]
+ c73p1rfshdxrom2048x32hb4img108_c73p4hdxrom_bitcell04g
Xiarray_r28c2 lblleft[2] rwlt[28]
+ c73p1rfshdxrom2048x32hb4img108_c73p4hdxrom_bitcell04g
Xiarray_r28c3 lblleft[3] rwlt[28]
+ c73p1rfshdxrom2048x32hb4img108_c73p4hdxrom_bitcell04g
Xiarray_r28c4 lblleft[4] rwlt[28]
+ c73p1rfshdxrom2048x32hb4img108_c73p4hdxrom_bitcell04g
Xiarray_r28c5 lblleft[5] rwlt[28]
+ c73p1rfshdxrom2048x32hb4img108_c73p4hdxrom_bitcell04g
Xiarray_r28c6 lblleft[6] rwlt[28]
+ c73p1rfshdxrom2048x32hb4img108_c73p4hdxrom_bitcell04g
Xiarray_r28c7 lblleft[7] rwlt[28]
+ c73p1rfshdxrom2048x32hb4img108_c73p4hdxrom_bitcell04g
Xiarray_r29c0 lblleft[0] rwlt[29]
+ c73p1rfshdxrom2048x32hb4img108_c73p4hdxrom_bitcell04g
Xiarray_r29c1 lblleft[1] rwlt[29]
+ c73p1rfshdxrom2048x32hb4img108_c73p4hdxrom_bitcell04g
Xiarray_r29c2 lblleft[2] rwlt[29]
+ c73p1rfshdxrom2048x32hb4img108_c73p4hdxrom_bitcell04g
Xiarray_r29c3 lblleft[3] rwlt[29]
+ c73p1rfshdxrom2048x32hb4img108_c73p4hdxrom_bitcell04g
Xiarray_r29c4 lblleft[4] rwlt[29]
+ c73p1rfshdxrom2048x32hb4img108_c73p4hdxrom_bitcell04g
Xiarray_r29c5 lblleft[5] rwlt[29]
+ c73p1rfshdxrom2048x32hb4img108_c73p4hdxrom_bitcell04g
Xiarray_r29c6 lblleft[6] rwlt[29]
+ c73p1rfshdxrom2048x32hb4img108_c73p4hdxrom_bitcell04g
Xiarray_r29c7 lblleft[7] rwlt[29]
+ c73p1rfshdxrom2048x32hb4img108_c73p4hdxrom_bitcell04g
Xiarray_r2c0 lblleft[0] rwlt[2]
+ c73p1rfshdxrom2048x32hb4img108_c73p4hdxrom_bitcell04g
Xiarray_r2c1 lblleft[1] rwlt[2]
+ c73p1rfshdxrom2048x32hb4img108_c73p4hdxrom_bitcell04g
Xiarray_r2c2 lblleft[2] rwlt[2]
+ c73p1rfshdxrom2048x32hb4img108_c73p4hdxrom_bitcell04g
Xiarray_r2c3 lblleft[3] rwlt[2]
+ c73p1rfshdxrom2048x32hb4img108_c73p4hdxrom_bitcell04g
Xiarray_r2c4 lblleft[4] rwlt[2]
+ c73p1rfshdxrom2048x32hb4img108_c73p4hdxrom_bitcell04g
Xiarray_r2c5 lblleft[5] rwlt[2]
+ c73p1rfshdxrom2048x32hb4img108_c73p4hdxrom_bitcell04g
Xiarray_r2c6 lblleft[6] rwlt[2]
+ c73p1rfshdxrom2048x32hb4img108_c73p4hdxrom_bitcell04g
Xiarray_r2c7 lblleft[7] rwlt[2]
+ c73p1rfshdxrom2048x32hb4img108_c73p4hdxrom_bitcell04g
Xiarray_r30c0 lblleft[0] rwlt[30]
+ c73p1rfshdxrom2048x32hb4img108_c73p4hdxrom_bitcell04g
Xiarray_r30c1 lblleft[1] rwlt[30]
+ c73p1rfshdxrom2048x32hb4img108_c73p4hdxrom_bitcell04g
Xiarray_r30c2 lblleft[2] rwlt[30]
+ c73p1rfshdxrom2048x32hb4img108_c73p4hdxrom_bitcell04g
Xiarray_r30c3 lblleft[3] rwlt[30]
+ c73p1rfshdxrom2048x32hb4img108_c73p4hdxrom_bitcell04g
Xiarray_r30c4 lblleft[4] rwlt[30]
+ c73p1rfshdxrom2048x32hb4img108_c73p4hdxrom_bitcell04g
Xiarray_r30c5 lblleft[5] rwlt[30]